[General]
network = TictocNetwork
sim-time-limit = 1000s



**.statistic-recording = true
**.energyVector.record = true
**.sentVector.record = true
**.receivedVector.record = true


output-scalar-file = results/scalars.sca
output-vector-file = results/vectors.vec
